12

C -1.413588 -0.251584 0.501332
C -0.239765 -0.192435 -0.459419
C 0.969065 0.488831 0.165923
O 2.034676 0.537117 -0.773305
H -1.726267 0.753774 0.801001
H -2.267485 -0.745541 0.027276
H -1.153749 -0.814131 1.403743
H -0.531170 0.341424 -1.371815
H 0.030988 -1.206399 -0.777183
H 1.314208 -0.048448 1.055174
H 0.730045 1.516285 0.457482
H 2.253042 -0.378892 -1.015835
