10

C 0.993689 -0.277039 0.103585
C -0.217200 0.639555 0.144992
N -1.422644 -0.060763 -0.280728
H 1.888320 0.265206 0.426051
H 1.173221 -0.651297 -0.909901
H 0.862753 -1.137276 0.768643
H -0.052721 1.503034 -0.507670
H -0.361450 1.019773 1.161478
H -1.289698 -0.427875 -1.222493
H -1.574269 -0.873317 0.316043
