12

O -2.360096 1.887307 0.432468
C -1.141401 1.412188 -0.123456
C -1.192471 -0.102761 -0.260450
C 0.097398 -0.661031 -0.834010
H -3.077689 1.628222 -0.170452
H -0.990806 1.895737 -1.094055
H -0.326716 1.716301 0.541078
H -2.036606 -0.387592 -0.899755
H -1.390940 -0.553722 0.719159
H 0.949230 -0.421725 -0.189470
H 0.033567 -1.750094 -0.921941
H 0.293700 -0.250753 -1.829729
