18

C -0.052510 2.284424 0.579357
C -0.509772 1.675731 1.746597
C -0.469057 0.288208 1.869767
C 0.029839 -0.492324 0.825855
C 0.496493 0.110418 -0.350052
C 1.013828 -0.733315 -1.488297
C -0.105619 -1.115693 -2.442413
Br 0.606588 -2.202540 -3.893892
C 0.446853 1.506099 -0.465977
H -0.084693 3.366602 0.483070
H -0.897778 2.282719 2.560328
H -0.826132 -0.186610 2.779966
H 0.053331 -1.574155 0.937519
H 1.803202 -0.184333 -2.018229
H 1.500741 -1.630353 -1.083873
H -0.571108 -0.241500 -2.907241
H -0.879466 -1.715809 -1.954586
H 0.798505 1.996870 -1.370888
