28

O 3.290809 -1.211031 -3.362957
C 2.967335 -0.404330 -2.233996
C 2.138346 -1.184015 -1.211708
C 0.731502 -1.472306 -1.699627
C 0.501772 -2.693654 -2.362196
C -0.753734 -3.010027 -2.877647
C -1.802427 -2.109760 -2.741345
C -1.595526 -0.897553 -2.084279
C -0.336672 -0.561146 -1.551973
C -0.201254 0.759545 -0.823861
C -0.373993 0.653526 0.695562
C -1.801295 0.345876 1.126406
H 2.452128 -1.392896 -3.824382
H 3.913350 -0.096969 -1.777236
H 2.455919 0.496656 -2.587167
H 2.637617 -2.134323 -0.982724
H 2.100197 -0.631334 -0.267899
H 1.313173 -3.410188 -2.483291
H -0.910825 -3.958134 -3.384948
H -2.783811 -2.351114 -3.140751
H -2.433667 -0.210776 -1.980514
H 0.779074 1.196700 -1.043940
H -0.924577 1.479756 -1.228441
H -0.083088 1.612588 1.141110
H 0.296236 -0.105993 1.112971
H -2.108398 -0.655526 0.811080
H -1.880335 0.387216 2.217598
H -2.504485 1.073497 0.709096
