23

C -1.242110 2.677113 1.952466
C -1.465021 1.590911 0.912300
C -0.318524 0.580044 0.903637
C -0.546563 -0.511278 -0.144856
C 0.600046 -1.524503 -0.147947
C 0.486810 -2.571170 -1.262471
C -0.762753 -3.446160 -1.227777
Cl -0.863731 -4.413201 0.260599
H -1.174224 2.249487 2.957884
H -2.073551 3.388798 1.941462
H -0.319036 3.229928 1.750813
H -2.411195 1.079352 1.123882
H -1.560594 2.054179 -0.076611
H 0.625763 1.098046 0.696175
H -0.224770 0.122015 1.895873
H -1.494591 -1.017792 0.067812
H -0.636087 -0.053661 -1.137405
H 0.662255 -2.016226 0.829619
H 1.548882 -0.989936 -0.283267
H 1.375887 -3.213426 -1.226231
H 0.520414 -2.057291 -2.231319
H -0.746976 -4.147939 -2.067429
H -1.677017 -2.852166 -1.309524
