21

C 2.488910 1.284025 0.225348
C 2.282008 -0.222100 0.182650
C 0.960841 -0.639580 -0.466764
C -0.271305 -0.202014 0.329116
C -1.558733 -0.737048 -0.306383
C -2.799872 -0.341795 0.486260
O -2.957582 1.069812 0.511994
H 1.762588 1.770629 0.882739
H 3.488125 1.514735 0.608643
H 2.400318 1.721635 -0.773987
H 3.105077 -0.670076 -0.386900
H 2.342983 -0.627731 1.199208
H 0.907212 -0.234284 -1.484569
H 0.956946 -1.732581 -0.561497
H -0.192318 -0.568952 1.359523
H -0.315461 0.891547 0.375254
H -1.511733 -1.830068 -0.373750
H -1.639260 -0.344578 -1.327332
H -3.696567 -0.778533 0.035183
H -2.733426 -0.697453 1.519184
H -3.018752 1.374407 -0.409412
