15

C -1.489018 0.628624 -1.073374
C -0.913843 -0.779151 -0.994685
C -0.817823 -1.416667 -2.382475
C -0.179589 -2.798959 -2.339812
O -1.760372 -1.576837 -0.171689
H -2.504702 0.614858 -1.483886
H -1.560507 1.069731 -0.073305
H -0.866584 1.278713 -1.695645
H 0.077740 -0.746349 -0.529225
H -0.229980 -0.774087 -3.048117
H -1.819913 -1.516316 -2.817212
H -0.103666 -3.210203 -3.351429
H 0.828826 -2.751300 -1.916631
H -0.773316 -3.494259 -1.738273
H -1.790979 -1.161862 0.707202
