11

C -0.160172 -2.300732 -0.488868
C 0.132926 -1.494328 0.768283
C -0.992038 -1.542605 1.795600
Cl -1.203607 -3.171640 2.477588
H -0.236035 -3.370807 -0.274479
H -1.095752 -1.974566 -0.954283
H 0.645137 -2.164543 -1.217908
H 1.070268 -1.844125 1.216741
H 0.292689 -0.448906 0.478468
H -0.769730 -0.869148 2.628718
H -1.944847 -1.236496 1.353035
