12

C -1.065145 1.399881 -1.279538
C -0.364762 0.263653 -1.687749
C -0.202919 -0.808876 -0.809628
C -0.740364 -0.747599 0.476843
C -1.441047 0.387821 0.886783
C -1.600551 1.457205 0.006519
Cl -2.464264 2.857605 0.510884
H -1.189410 2.233189 -1.965548
H 0.054473 0.214447 -2.689572
H 0.342873 -1.693807 -1.128342
H -0.613465 -1.583877 1.159752
H -1.858250 0.432434 1.888984
