17

C 1.299671 -0.845737 1.405696
C 1.524426 0.341200 0.481715
C 0.229588 0.918015 -0.096641
C -0.497900 -0.052943 -1.032578
C -1.682299 0.583274 -1.754783
Cl -2.989680 1.025349 -0.632822
H 2.247247 -1.152040 1.860464
H 0.900000 -1.707017 0.862551
H 0.604236 -0.590572 2.211490
H 2.034032 1.130858 1.046739
H 2.198988 0.048343 -0.331207
H 0.480172 1.830378 -0.651890
H -0.428186 1.219039 0.726762
H 0.209143 -0.413760 -1.789674
H -0.841493 -0.932140 -0.475505
H -1.379070 1.486873 -2.292296
H -2.102142 -0.120643 -2.479601
