14

C 0.762267 -1.897905 -0.422829
C -0.100271 -0.793269 0.166572
C -1.464483 -1.322363 0.607673
C -2.316914 -0.210199 1.194593
Br -4.043445 -0.922775 1.743584
H 0.283757 -2.342928 -1.301075
H 1.732848 -1.497062 -0.731384
H 0.939828 -2.690712 0.310835
H -0.231665 -0.002215 -0.580950
H 0.420842 -0.348106 1.022195
H -1.326408 -2.119885 1.348621
H -1.977268 -1.774859 -0.250470
H -1.861571 0.227588 2.087120
H -2.521959 0.577656 0.464634
