32

C -2.634790 -0.650261 -3.032682
C -1.879296 0.603272 -3.447002
C -0.802802 1.024917 -2.443659
C 0.342110 0.015384 -2.329403
C 1.503116 0.512530 -1.461642
C 1.151609 0.839810 -0.006322
C 0.486528 -0.290500 0.786102
C 1.353488 -1.547798 0.889338
C 0.764025 -2.610433 1.821805
C -0.544268 -3.189208 1.307935
Br -1.137481 -4.620592 2.489753
H -1.983739 -1.529289 -3.031068
H -3.066530 -0.536928 -2.033244
H -3.451955 -0.845164 -3.734653
H -2.598187 1.424864 -3.550268
H -1.430286 0.449428 -4.435081
H -1.269242 1.182443 -1.464621
H -0.396607 1.992884 -2.761904
H -0.027852 -0.937302 -1.936372
H 0.734216 -0.195581 -3.332202
H 2.300240 -0.240242 -1.481533
H 1.930072 1.412280 -1.922591
H 2.071948 1.140803 0.510094
H 0.494110 1.717028 0.019268
H 0.275197 0.081907 1.796304
H -0.482783 -0.531561 0.337540
H 2.344570 -1.269422 1.268190
H 1.504645 -1.988041 -0.102759
H 1.502958 -3.414472 1.932186
H 0.621626 -2.183582 2.822533
H -0.435161 -3.631462 0.314027
H -1.352098 -2.453678 1.296693
