18

C 2.054613 0.920988 -1.685188
C 1.863507 -0.001703 -0.491571
C 0.705685 -0.989615 -0.663975
C -0.668037 -0.336771 -0.794116
O -0.928477 0.456480 0.361398
C -2.196490 1.093587 0.286261
H 2.952970 1.531403 -1.547780
H 2.172714 0.348023 -2.610260
H 1.207143 1.602341 -1.804624
H 1.718508 0.599115 0.413499
H 2.786757 -0.574451 -0.342300
H 0.888812 -1.623583 -1.539332
H 0.698212 -1.646502 0.214794
H -0.718823 0.285642 -1.694080
H -1.431739 -1.119205 -0.874211
H -2.235753 1.767795 -0.574732
H -2.341101 1.681317 1.196686
H -2.996062 0.349529 0.219648
