23

C 1.438490 2.237216 -1.680661
C 0.947814 0.816948 -1.444350
C -0.467117 0.805456 -0.865111
C -1.049423 -0.602527 -0.709511
C -0.273173 -1.544740 0.216479
C -0.060984 -1.041515 1.646067
C -1.357908 -0.784786 2.397439
H 2.452592 2.224148 -2.092211
H 0.791349 2.763513 -2.389562
H 1.458475 2.805681 -0.745343
H 1.643007 0.315788 -0.762437
H 0.966845 0.267719 -2.392683
H -1.129884 1.373992 -1.529832
H -0.479322 1.327236 0.098610
H -1.112060 -1.070204 -1.700349
H -2.083120 -0.515174 -0.354159
H 0.705479 -1.765414 -0.225893
H -0.806666 -2.503072 0.255023
H 0.514625 -1.797032 2.194570
H 0.548250 -0.131200 1.644936
H -1.920999 0.042224 1.955150
H -1.993940 -1.675582 2.399083
H -1.143073 -0.520329 3.437821
