20

C -1.613478 1.313746 -2.707563
C -1.652416 -0.004517 -1.949566
C -0.482103 -0.907094 -2.340923
C -0.538210 -2.293493 -1.692000
C -0.511297 -2.312771 -0.161788
C 0.735456 -1.676857 0.432630
H -0.688244 1.859677 -2.497157
H -1.677153 1.147776 -3.787713
H -2.456202 1.946177 -2.411249
H -2.601075 -0.511819 -2.159379
H -1.626096 0.209070 -0.875713
H -0.483954 -1.043237 -3.429887
H 0.466044 -0.414887 -2.095587
H 0.305902 -2.885059 -2.068153
H -1.447325 -2.806833 -2.029314
H -0.560620 -3.357286 0.169309
H -1.402209 -1.819963 0.242361
H 0.744600 -1.812452 1.518931
H 0.770967 -0.601791 0.233415
H 1.642521 -2.135482 0.026539
