34

C 4.975272 0.997280 -0.390005
C 4.243803 -0.329288 -0.519907
C 2.761144 -0.187970 -0.172794
C 2.030685 -1.525684 -0.308873
C 0.567478 -1.462923 0.131737
C -0.301171 -0.575923 -0.758548
O -1.675146 -0.701043 -0.389965
C -2.076792 0.177571 0.662263
C -2.474693 1.543679 0.111148
C -3.857638 1.319737 -0.495769
C -4.457093 0.126620 0.247073
C -3.392164 -0.333373 1.240375
H 4.550924 1.747109 -1.065300
H 6.033077 0.873085 -0.642056
H 4.912579 1.381232 0.633215
H 4.713646 -1.064737 0.143459
H 4.352164 -0.700997 -1.545489
H 2.658432 0.184562 0.853576
H 2.307722 0.557187 -0.835948
H 2.541198 -2.277072 0.306298
H 2.088029 -1.875995 -1.346617
H 0.151357 -2.478461 0.128188
H 0.508445 -1.127070 1.173501
H -0.220707 -0.914223 -1.797102
H 0.014774 0.471520 -0.727850
H -1.304713 0.242694 1.435287
H -2.547966 2.269843 0.929484
H -1.780013 1.935145 -0.637129
H -3.771998 1.086405 -1.563497
H -4.482837 2.213672 -0.405012
H -4.691604 -0.674589 -0.463238
H -5.387538 0.391983 0.759320
H -3.579047 0.130823 2.216023
H -3.409612 -1.420800 1.362908
